data_Unitcell

_symmetry_space_group_name_H-M "P1"
_symmetry_Int_Tables_number  1
_symmetry_cell_setting TRICLINIC
_cell_length_a 8.545160
_cell_length_b 28.193589
_cell_length_c 7.998746
_cell_angle_alpha 90.000000
_cell_angle_beta 84.863063
_cell_angle_gamma 90.000000

loop_
	_symmetry_equiv_pos_site_id
	_symmetry_equiv_pos_as_xyz
	(X,Y,Z)

loop_
	_atom_site_label
	_atom_site_fract_x
	_atom_site_fract_y
	_atom_site_fract_z
C	0.314229	0.584342	0.192026
C	0.410154	0.573882	0.318804
C	0.347284	0.552465	0.467060
C	0.908794	0.448014	0.637010
C	0.811960	0.458931	0.509394
C	0.886796	0.483407	0.351658
C	0.248555	0.429684	0.098758
C	0.100472	0.449844	0.137005
C	0.043793	0.459047	0.302742
C	0.137827	0.447059	0.431709
C	0.221678	0.518300	0.790075
C	0.281142	0.424219	0.393849
C	0.080160	0.460646	0.608437
C	0.845484	0.426414	0.784587
C	0.091196	0.551990	0.362981
C	0.188042	0.541068	0.490581
C	0.113214	0.516592	0.648323
C	0.919835	0.539353	0.391564
C	0.751464	0.570299	0.901272
C	0.899566	0.550155	0.862998
C	0.956228	0.540955	0.697253
C	0.862174	0.552938	0.568300
C	0.718853	0.575773	0.606185
C	0.661436	0.583754	0.772482
C	0.685739	0.415679	0.807981
C	0.589826	0.426132	0.681183
C	0.778339	0.481703	0.209897
C	0.652713	0.447534	0.532906
C	0.154493	0.573598	0.215412
C	0.338562	0.416228	0.227563
H	0.830901	0.499475	0.096968
H	0.465594	0.417024	0.696760
H	0.575629	0.455281	0.435494
H	0.752253	0.444952	0.176877
H	0.666821	0.499699	0.245739
H	0.333227	0.500325	0.754193
H	0.077597	0.581941	0.117917
H	0.854077	0.559494	0.303700
H	0.547615	0.600660	0.800110
H	0.651406	0.587336	0.504534
H	0.970819	0.541047	0.964350
H	0.707394	0.575654	0.031816
H	0.362720	0.600846	0.075710
H	0.534384	0.582989	0.303227
H	0.424388	0.544715	0.564451
H	0.247692	0.555052	0.823138
H	0.637233	0.399188	0.924312
H	0.292608	0.424309	0.968222
H	0.169155	0.500510	0.902984
H	0.348541	0.412638	0.495517
H	0.452342	0.399296	0.199957
H	0.145908	0.440504	0.696311
H	0.922373	0.418081	0.882098
H	0.029220	0.458938	0.035636
C	0.314261	0.165679	0.692019
C	0.410174	0.176132	0.818817
C	0.347287	0.197534	0.967094
C	0.908804	0.301990	0.137019
C	0.811958	0.291068	0.009419
C	0.886786	0.266592	0.851677
C	0.248536	0.320299	0.598728
C	0.100434	0.300155	0.637002
C	0.043772	0.290955	0.802747
C	0.137826	0.302938	0.931700
C	0.221661	0.231703	0.290103
C	0.281147	0.325773	0.893815
C	0.080165	0.289353	0.108436
C	0.845507	0.323598	0.284588
C	0.091206	0.198014	0.862990
C	0.188040	0.208931	0.990606
C	0.113204	0.233407	0.148342
C	0.919840	0.210646	0.891563
C	0.751446	0.179684	0.401242
C	0.899528	0.199844	0.362995
C	0.956207	0.209047	0.197258
C	0.862173	0.197059	0.068291
C	0.718858	0.174219	0.106151
C	0.661438	0.166228	0.272437
C	0.685772	0.334342	0.307974
C	0.589846	0.323882	0.181196
C	0.778322	0.268300	0.709925
C	0.652716	0.302465	0.032940
C	0.154516	0.176414	0.715413
C	0.338564	0.333754	0.727518
H	0.830845	0.250510	0.597016
H	0.465616	0.332989	0.196773
H	0.575612	0.294715	0.935549
H	0.752308	0.305052	0.676862
H	0.666773	0.250325	0.745807
H	0.333179	0.249699	0.254261
H	0.077627	0.168081	0.617902
H	0.854092	0.190504	0.803689
H	0.547658	0.149296	0.300043
H	0.651459	0.162638	0.004483
H	0.970780	0.208938	0.464364
H	0.707393	0.174309	0.531778
H	0.362767	0.149188	0.575688
H	0.534406	0.167024	0.803240
H	0.424371	0.205281	0.064506
H	0.247747	0.194952	0.323123
H	0.637280	0.350846	0.424290
H	0.292606	0.325654	0.468184
H	0.169099	0.249475	0.403032
H	0.348594	0.337336	0.995466
H	0.452385	0.350660	0.699890
H	0.145923	0.309494	0.196300
H	0.922403	0.331941	0.382083
H	0.029181	0.291047	0.535650
C	0.314261	0.665679	0.692019
C	0.410174	0.676132	0.818817
C	0.347287	0.697534	0.967094
C	0.908804	0.801990	0.137019
C	0.811958	0.791068	0.009419
C	0.886786	0.766592	0.851677
C	0.248536	0.820299	0.598728
C	0.100434	0.800155	0.637002
C	0.043772	0.790955	0.802747
C	0.137826	0.802938	0.931700
C	0.221661	0.731703	0.290103
C	0.281147	0.825773	0.893815
C	0.080165	0.789353	0.108436
C	0.845507	0.823598	0.284588
C	0.091206	0.698014	0.862990
C	0.188040	0.708931	0.990606
C	0.113204	0.733407	0.148342
C	0.919840	0.710646	0.891563
C	0.751446	0.679684	0.401242
C	0.899528	0.699844	0.362995
C	0.956207	0.709047	0.197258
C	0.862173	0.697059	0.068291
C	0.718858	0.674219	0.106151
C	0.661438	0.666228	0.272437
C	0.685772	0.834342	0.307974
C	0.589846	0.823882	0.181196
C	0.778322	0.768300	0.709925
C	0.652716	0.802465	0.032940
C	0.154516	0.676414	0.715413
C	0.338564	0.833754	0.727518
H	0.830845	0.750510	0.597016
H	0.465616	0.832989	0.196773
H	0.575612	0.794715	0.935549
H	0.752308	0.805052	0.676862
H	0.666773	0.750325	0.745807
H	0.333179	0.749699	0.254261
H	0.077627	0.668081	0.617902
H	0.854092	0.690504	0.803689
H	0.547658	0.649296	0.300043
H	0.651459	0.662638	0.004483
H	0.970780	0.708938	0.464364
H	0.707393	0.674309	0.531778
H	0.362767	0.649188	0.575688
H	0.534406	0.667024	0.803240
H	0.424371	0.705281	0.064506
H	0.247747	0.694952	0.323123
H	0.637280	0.850846	0.424290
H	0.292606	0.825654	0.468184
H	0.169099	0.749475	0.403032
H	0.348594	0.837336	0.995466
H	0.452385	0.850660	0.699890
H	0.145923	0.809494	0.196300
H	0.922403	0.831941	0.382083
H	0.029181	0.791047	0.535650
