
data_SG14-1-dih_000_000-0226
_symmetry_cell_setting           triclinic
_symmetry_space_group_name_H-M   'P 1'
_symmetry_Int_Tables_number      1
loop_
_symmetry_equiv_pos_site_id
_symmetry_equiv_pos_as_xyz
1 x,y,z
_cell_length_a 8.545160011910383                    
_cell_length_b 14.096794675                   
_cell_length_c 7.9987459338774221                   
_cell_angle_alpha 90.                
_cell_angle_beta 84.863063035681094                 
_cell_angle_gamma 90.                
loop_
_atom_site_label
_atom_site_fract_x
_atom_site_fract_y
_atom_site_fract_z
C	-0.3620345329	0.1447155401	0.7311355342
C	-0.2904383299	0.1685911126	0.5767410449
C	-0.1288003028	0.1480552453	0.5330277145
C	-0.0378295984	0.1039197895	0.6552207376
C	-0.1173296682	0.0809449887	0.8145795829
C	-0.2743272715	0.0995444963	0.8508466114
C	-0.0571154191	0.1707385846	0.3743813351
C	0.1240726192	0.0859357927	0.6158469148
C	0.19579693	0.1112497891	0.4558938388
C	0.1023506825	0.153101157	0.3328522862
C	0.1752748861	0.1792132476	0.172343028
H	0.101601439	0.208576645	0.080844925
C	0.334000729	0.1694144353	0.1348826729
C	0.4271422379	0.1303704428	0.255821078
C	0.3600219827	0.1010325274	0.4094333039
H	-0.1262116743	0.204117689	0.2824541444
H	-0.4860644811	0.1604121524	0.7615789011
H	-0.3560712798	0.2035401232	0.4837387581
H	-0.0521982587	0.0474920169	0.9092245722
H	-0.3324055737	0.0795305464	0.9723190994
H	0.3888188231	0.1927038622	0.013741799
H	0.5536498433	0.1241565415	0.2268747322
H	0.4354161728	0.0714912143	0.4985639859
C	0.2165234632	0.0425383944	0.7472980523
H	0.2258328813	0.0913981804	0.8529353732
H	0.3354659268	0.0228688619	0.6986719388
H	0.1588001278	-0.0220680239	0.7983395184
C	-0.3620345329	0.3552844599	0.2311355342
C	-0.2904383299	0.3314088874	0.0767410449
C	-0.1288003028	0.3519447547	0.0330277145
C	-0.0378295984	0.3960802105	0.1552207376
C	-0.1173296682	0.4190550113	0.3145795829
C	-0.2743272715	0.4004555037	0.3508466114
C	-0.0571154191	0.3292614154	-0.1256186649
C	0.1240726192	0.4140642073	0.1158469148
C	0.19579693	0.3887502109	-0.0441061612
C	0.1023506825	0.346898843	-0.1671477138
C	0.1752748861	0.3207867524	-0.327656972
H	0.101601439	0.291423355	-0.419155075
C	0.334000729	0.3305855647	-0.3651173271
C	0.4271422379	0.3696295572	-0.244178922
C	0.3600219827	0.3989674726	-0.0905666961
H	-0.1262116743	0.295882311	-0.2175458556
H	-0.4860644811	0.3395878476	0.2615789011
H	-0.3560712798	0.2964598768	-0.0162612419
H	-0.0521982587	0.4525079831	0.4092245722
H	-0.3324055737	0.4204694536	0.4723190994
H	0.3888188231	0.3072961378	-0.486258201
H	0.5536498433	0.3758434585	-0.2731252678
H	0.4354161728	0.4285087857	-0.0014360141
C	0.2165234632	0.4574616056	0.2472980523
H	0.2258328813	0.4086018196	0.3529353732
H	0.3354659268	0.4771311381	0.1986719388
H	0.1588001278	0.5220680239	0.2983395184
C	1.3620345329	0.8552844599	0.2688644658
C	1.2904383299	0.8314088874	0.4232589551
C	1.1288003028	0.8519447547	0.4669722855
C	1.0378295984	0.8960802105	0.3447792624
C	1.1173296682	0.9190550113	0.1854204171
C	1.2743272715	0.9004555037	0.1491533886
C	1.0571154191	0.8292614154	0.6256186649
C	0.8759273808	0.9140642073	0.3841530852
C	0.80420307	0.8887502109	0.5441061612
C	0.8976493175	0.846898843	0.6671477138
C	0.8247251139	0.8207867524	0.827656972
H	0.898398561	0.791423355	0.919155075
C	0.665999271	0.8305855647	0.8651173271
C	0.5728577621	0.8696295572	0.744178922
C	0.6399780173	0.8989674726	0.5905666961
H	1.1262116743	0.795882311	0.7175458556
H	1.4860644811	0.8395878476	0.2384210989
H	1.3560712798	0.7964598768	0.5162612419
H	1.0521982587	0.9525079831	0.0907754278
H	1.3324055737	0.9204694536	0.0276809006
H	0.6111811769	0.8072961378	0.986258201
H	0.4463501567	0.8758434585	0.7731252678
H	0.5645838272	0.9285087857	0.5014360141
C	0.7834765368	0.9574616056	0.2527019477
H	0.7741671187	0.9086018196	0.1470646268
H	0.6645340732	0.9771311381	0.3013280612
H	0.8411998722	1.0220680239	0.2016604816
C	1.3620345329	0.6447155401	0.7688644658
C	1.2904383299	0.6685911126	0.9232589551
C	1.1288003028	0.6480552453	0.9669722855
C	1.0378295984	0.6039197895	0.8447792624
C	1.1173296682	0.5809449887	0.6854204171
C	1.2743272715	0.5995444963	0.6491533886
C	1.0571154191	0.6707385846	1.1256186649
C	0.8759273808	0.5859357927	0.8841530852
C	0.80420307	0.6112497891	1.0441061612
C	0.8976493175	0.653101157	1.1671477138
C	0.8247251139	0.6792132476	1.327656972
H	0.898398561	0.708576645	1.419155075
C	0.665999271	0.6694144353	1.3651173271
C	0.5728577621	0.6303704428	1.244178922
C	0.6399780173	0.6010325274	1.0905666961
H	1.1262116743	0.704117689	1.2175458556
H	1.4860644811	0.6604121524	0.7384210989
H	1.3560712798	0.7035401232	1.0162612419
H	1.0521982587	0.5474920169	0.5907754278
H	1.3324055737	0.5795305464	0.5276809006
H	0.6111811769	0.6927038622	1.486258201
H	0.4463501567	0.6241565415	1.2731252678
H	0.5645838272	0.5714912143	1.0014360141
C	0.7834765368	0.5425383944	0.7527019477
H	0.7741671187	0.5913981804	0.6470646268
H	0.6645340732	0.5228688619	0.8013280612
H	0.8411998722	0.4779319761	0.7016604816
